; Filename: E:\test\pythonProject\gnn\temp.inp
; WNTR: 1.2.0
; Created: 2025-12-23 18:55:45
[TITLE]

[JUNCTIONS]
;ID                      Elevation       Demand Pattern                 
 J1                    -0.63976377953               0                            ;
 J2                     -1.9192913386               0                            ;
 J3                     -3.1988188976               0                            ;
 J4                     -4.4783464567               0                            ;
 J5                     -5.7578740157               0                            ;
 J6                     -7.0374015748               0                            ;
 J7                     -8.3169291339               0                            ;
 J8                     -9.5964566929               0                            ;
 J9                     -10.875984252               0                            ;
 J10                    -12.155511811               0                            ;
 J11                     -1.624015748               0                            ;
 J12                     -3.592519685               0                            ;
 J13                     -5.561023622               0                            ;
 J14                    -7.5295275591               0                            ;
 J15                    -9.4980314961               0                            ;
 J16                    -11.466535433               0                            ;
 J21                    -2.9035433071               0                            ;
 J22                    -4.8720472441               0                            ;
 J23                    -6.8405511811               0                            ;
 J24                    -8.8090551181               0                            ;
 J25                    -10.777559055               0                            ;
 J26                    -12.746062992               0                            ;
 J31                    -4.1830708661               0                            ;
 J32                    -6.1515748031               0                            ;
 J33                    -8.1200787402               0                            ;
 J34                    -10.088582677               0                            ;
 J35                    -12.057086614               0                            ;
 J36                    -14.025590551               0                            ;
 J41                    -5.4625984252               0                            ;
 J42                    -7.4311023622    412.10840168                            ;
 J43                    -9.3996062992               0                            ;
 J44                    -11.368110236               0                            ;
 J45                    -13.336614173    412.10840168                            ;
 J46                     -15.30511811               0                            ;
 J51                    -6.7421259843               0                            ;
 J52                    -8.7106299213               0                            ;
 J53                    -10.679133858               0                            ;
 J54                    -12.647637795               0                            ;
 J55                    -14.616141732               0                            ;
 J56                    -16.584645669               0                            ;
 J61                    -8.0216535433               0                            ;
 J62                    -9.9901574803               0                            ;
 J63                    -11.958661417               0                            ;
 J64                    -13.927165354               0                            ;
 J65                    -15.895669291               0                            ;
 J66                    -17.864173228               0                            ;
 J71                    -9.3011811024               0                            ;
 J72                    -11.269685039               0                            ;
 J73                    -13.238188976               0                            ;
 J74                    -15.206692913               0                            ;
 J75                     -17.17519685               0                            ;
 J76                    -19.143700787               0                            ;
 J81                    -10.580708661               0                            ;
 J82                    -12.549212598               0                            ;
 J83                    -14.517716535               0                            ;
 J84                    -16.486220472               0                            ;
 J85                    -18.454724409               0                            ;
 J86                    -20.423228346               0                            ;
 J91                     -11.86023622               0                            ;
 J92                    -13.828740157               0                            ;
 J93                    -15.797244094               0                            ;
 J94                    -17.765748031               0                            ;
 J95                    -19.734251969               0                            ;
 J96                    -21.702755906               0                            ;
 J101                    -13.13976378               0                            ;
 J102                   -15.108267717               0                            ;
 J103                   -17.076771654               0                            ;
 J104                   -19.045275591               0                            ;
 J105                   -21.013779528               0                            ;
 J106                   -22.982283465               0                            ;

[RESERVOIRS]
;ID                                   Head                  Pattern
 J0                      82.020997375                            ;

[TANKS]
;ID                              Elevation           Init Level            Min Level            Max Level             Diameter           Min Volume Volume Curve         Overflow            

[PIPES]
;ID                   Node1                Node2                              Length             Diameter            Roughness           Minor Loss               Status
 G0                   J0                   J1                      164.04199475     9.842519685          0.0015               0                 Open   ;
 G1                   J1                   J2                       328.0839895     9.842519685          0.0015               0                 Open   ;
 G2                   J2                   J3                       328.0839895     9.842519685          0.0015               0                 Open   ;
 G3                   J3                   J4                       328.0839895     9.842519685          0.0015               0                 Open   ;
 G4                   J4                   J5                       328.0839895     9.842519685          0.0015               0                 Open   ;
 G5                   J5                   J6                       328.0839895     9.842519685          0.0015               0                 Open   ;
 G6                   J6                   J7                       328.0839895     9.842519685          0.0015               0                 Open   ;
 G7                   J7                   J8                       328.0839895     9.842519685          0.0015               0                 Open   ;
 G8                   J8                   J9                       328.0839895     9.842519685          0.0015               0                 Open   ;
 G9                   J9                   J10                      328.0839895     9.842519685          0.0015               0                 Open   ;
 G01                  J1                   J11                     164.04199475    6.2992125984           0.007               0                 Open   ;
 G02                  J11                  J12                      328.0839895    6.2992125984           0.007               0                 Open   ;
 G03                  J12                  J13                      328.0839895    6.2992125984           0.007               0                 Open   ;
 G04                  J13                  J14                      328.0839895    6.2992125984           0.007               0                 Open   ;
 G05                  J14                  J15                      328.0839895    6.2992125984           0.007               0                 Open   ;
 G06                  J15                  J16                      328.0839895    6.2992125984           0.007               0                 Open   ;
 G11                  J2                   J21                     164.04199475    6.2992125984           0.007               0                 Open   ;
 G12                  J21                  J22                      328.0839895    6.2992125984           0.007               0                 Open   ;
 G13                  J22                  J23                      328.0839895    6.2992125984           0.007               0                 Open   ;
 G14                  J23                  J24                      328.0839895    6.2992125984           0.007               0                 Open   ;
 G15                  J24                  J25                      328.0839895    6.2992125984           0.007               0                 Open   ;
 G16                  J25                  J26                      328.0839895    6.2992125984           0.007               0                 Open   ;
 G21                  J3                   J31                     164.04199475    6.2992125984           0.007               0                 Open   ;
 G22                  J31                  J32                      328.0839895    6.2992125984           0.007               0                 Open   ;
 G23                  J32                  J33                      328.0839895    6.2992125984           0.007               0                 Open   ;
 G24                  J33                  J34                      328.0839895    6.2992125984           0.007               0                 Open   ;
 G25                  J34                  J35                      328.0839895    6.2992125984           0.007               0                 Open   ;
 G26                  J35                  J36                      328.0839895    6.2992125984           0.007               0                 Open   ;
 G31                  J4                   J41                     164.04199475    6.2992125984           0.007               0                 Open   ;
 G32                  J41                  J42                      328.0839895    6.2992125984           0.007               0                 Open   ;
 G33                  J42                  J43                      328.0839895    6.2992125984           0.007               0                 Open   ;
 G34                  J43                  J44                      328.0839895    6.2992125984           0.007               0                 Open   ;
 G35                  J44                  J45                      328.0839895    6.2992125984           0.007               0                 Open   ;
 G36                  J45                  J46                      328.0839895    6.2992125984           0.007               0                 Open   ;
 G41                  J5                   J51                     164.04199475    6.2992125984           0.007               0                 Open   ;
 G42                  J51                  J52                      328.0839895    6.2992125984           0.007               0                 Open   ;
 G43                  J52                  J53                      328.0839895    6.2992125984           0.007               0                 Open   ;
 G44                  J53                  J54                      328.0839895    6.2992125984           0.007               0                 Open   ;
 G45                  J54                  J55                      328.0839895    6.2992125984           0.007               0                 Open   ;
 G46                  J55                  J56                      328.0839895    6.2992125984           0.007               0                 Open   ;
 G51                  J6                   J61                     164.04199475    6.2992125984           0.007               0                 Open   ;
 G52                  J61                  J62                      328.0839895    6.2992125984           0.007               0                 Open   ;
 G53                  J62                  J63                      328.0839895    6.2992125984           0.007               0                 Open   ;
 G54                  J63                  J64                      328.0839895    6.2992125984           0.007               0                 Open   ;
 G55                  J64                  J65                      328.0839895    6.2992125984           0.007               0                 Open   ;
 G56                  J65                  J66                      328.0839895    6.2992125984           0.007               0                 Open   ;
 G61                  J7                   J71                     164.04199475    6.2992125984           0.007               0                 Open   ;
 G62                  J71                  J72                      328.0839895    6.2992125984           0.007               0                 Open   ;
 G63                  J72                  J73                      328.0839895    6.2992125984           0.007               0                 Open   ;
 G64                  J73                  J74                      328.0839895    6.2992125984           0.007               0                 Open   ;
 G65                  J74                  J75                      328.0839895    6.2992125984           0.007               0                 Open   ;
 G66                  J75                  J76                      328.0839895    6.2992125984           0.007               0                 Open   ;
 G71                  J8                   J81                     164.04199475    6.2992125984           0.007               0                 Open   ;
 G72                  J81                  J82                      328.0839895    6.2992125984           0.007               0                 Open   ;
 G73                  J82                  J83                      328.0839895    6.2992125984           0.007               0                 Open   ;
 G74                  J83                  J84                      328.0839895    6.2992125984           0.007               0                 Open   ;
 G75                  J84                  J85                      328.0839895    6.2992125984           0.007               0                 Open   ;
 G76                  J85                  J86                      328.0839895    6.2992125984           0.007               0                 Open   ;
 G81                  J9                   J91                     164.04199475    6.2992125984           0.007               0                 Open   ;
 G82                  J91                  J92                      328.0839895    6.2992125984           0.007               0                 Open   ;
 G83                  J92                  J93                      328.0839895    6.2992125984           0.007               0                 Open   ;
 G84                  J93                  J94                      328.0839895    6.2992125984           0.007               0                 Open   ;
 G85                  J94                  J95                      328.0839895    6.2992125984           0.007               0                 Open   ;
 G86                  J95                  J96                      328.0839895    6.2992125984           0.007               0                 Open   ;
 G91                  J10                  J101                    164.04199475    6.2992125984           0.007               0                 Open   ;
 G92                  J101                 J102                     328.0839895    6.2992125984           0.007               0                 Open   ;
 G93                  J102                 J103                     328.0839895    6.2992125984           0.007               0                 Open   ;
 G94                  J103                 J104                     328.0839895    6.2992125984           0.007               0                 Open   ;
 G95                  J104                 J105                     328.0839895    6.2992125984           0.007               0                 Open   ;
 G96                  J105                 J106                     328.0839895    6.2992125984           0.007               0                 Open   ;

[PUMPS]
;ID                   Node1                Node2                Properties          

[VALVES]
;ID                   Node1                Node2                            Diameter Type              Setting           Minor Loss

[TAGS]
;type      name       tag       

[DEMANDS]
;ID        Demand     Pattern   

[STATUS]
;ID        Setting   

[PATTERNS]
;ID        Multipliers

[CURVES]
;ID         X-Value      Y-Value     

[CONTROLS]

[RULES]

[ENERGY]
GLOBAL PRICE           0.0000

[EMITTERS]
;ID        Flow coefficient

[QUALITY]

[SOURCES]
;Node      Type       Quality    Pattern   

[REACTIONS]
;Type           Pipe/Tank               Coefficient

 ORDER BULK 1
 ORDER TANK 1
 ORDER WALL 1
 GLOBAL BULK 0.0000    
 GLOBAL WALL 0.0000    

[MIXING]
;Tank ID             Model Fraction

[TIMES]
DURATION             00:00:00
HYDRAULIC TIMESTEP   01:00:00
QUALITY TIMESTEP     00:06:00
PATTERN TIMESTEP     01:00:00
PATTERN START        00:00:00
REPORT TIMESTEP      01:00:00
REPORT START         00:00:00
START CLOCKTIME      00:00:00 AM
RULE TIMESTEP        00:06:00
STATISTIC            NONE      

[REPORT]

[OPTIONS]
UNITS                GPM                 
HEADLOSS             D-W                 
SPECIFIC GRAVITY     1
VISCOSITY            1
TRIALS               200
ACCURACY             0.001
CHECKFREQ            2
MAXCHECK             10
UNBALANCED           STOP                
DEMAND MULTIPLIER    1
EMITTER EXPONENT     0.5
QUALITY              NONE                
DIFFUSIVITY          1
TOLERANCE            0.01

[COORDINATES]
;Node      X-Coord    Y-Coord   
J1                 50.000000000          0.000000000
J2                150.000000000          0.000000000
J3                250.000000000          0.000000000
J4                350.000000000          0.000000000
J5                450.000000000          0.000000000
J6                550.000000000          0.000000000
J7                650.000000000          0.000000000
J8                750.000000000          0.000000000
J9                850.000000000          0.000000000
J10               950.000000000          0.000000000
J11                50.000000000        -50.000000000
J12                50.000000000       -150.000000000
J13                50.000000000       -250.000000000
J14                50.000000000       -350.000000000
J15                50.000000000       -450.000000000
J16                50.000000000       -550.000000000
J21               150.000000000        -50.000000000
J22               150.000000000       -150.000000000
J23               150.000000000       -250.000000000
J24               150.000000000       -350.000000000
J25               150.000000000       -450.000000000
J26               150.000000000       -550.000000000
J31               250.000000000        -50.000000000
J32               250.000000000       -150.000000000
J33               250.000000000       -250.000000000
J34               250.000000000       -350.000000000
J35               250.000000000       -450.000000000
J36               250.000000000       -550.000000000
J41               350.000000000        -50.000000000
J42               350.000000000       -150.000000000
J43               350.000000000       -250.000000000
J44               350.000000000       -350.000000000
J45               350.000000000       -450.000000000
J46               350.000000000       -550.000000000
J51               450.000000000        -50.000000000
J52               450.000000000       -150.000000000
J53               450.000000000       -250.000000000
J54               450.000000000       -350.000000000
J55               450.000000000       -450.000000000
J56               450.000000000       -550.000000000
J61               550.000000000        -50.000000000
J62               550.000000000       -150.000000000
J63               550.000000000       -250.000000000
J64               550.000000000       -350.000000000
J65               550.000000000       -450.000000000
J66               550.000000000       -550.000000000
J71               650.000000000        -50.000000000
J72               650.000000000       -150.000000000
J73               650.000000000       -250.000000000
J74               650.000000000       -350.000000000
J75               650.000000000       -450.000000000
J76               650.000000000       -550.000000000
J81               750.000000000        -50.000000000
J82               750.000000000       -150.000000000
J83               750.000000000       -250.000000000
J84               750.000000000       -350.000000000
J85               750.000000000       -450.000000000
J86               750.000000000       -550.000000000
J91               850.000000000        -50.000000000
J92               850.000000000       -150.000000000
J93               850.000000000       -250.000000000
J94               850.000000000       -350.000000000
J95               850.000000000       -450.000000000
J96               850.000000000       -550.000000000
J101              950.000000000        -50.000000000
J102              950.000000000       -150.000000000
J103              950.000000000       -250.000000000
J104              950.000000000       -350.000000000
J105              950.000000000       -450.000000000
J106              950.000000000       -550.000000000
J0                  0.000000000          0.000000000

[VERTICES]
;Link      X-Coord    Y-Coord   

[LABELS]

[BACKDROP]
UNITS    NONE

[END]
